43
Generated from SMILES: Cc1ccccc1P(c1ccccc1C)c1ccccc1C
 C        -2.23111945     2.18649674     1.60400259
 C        -1.21477765     2.56401811     0.55450573
 C        -1.27940769     3.86460865     0.01819028
 C        -0.37572931     4.28725734    -0.95279229
 C         0.60584523     3.41612427    -1.40313926
 C         0.68252556     2.12112723    -0.88452588
 C        -0.21964622     1.66251289     0.09579776
 P        -0.11381907    -0.04005401     0.77237412
 C        -1.32600005    -1.01032939    -0.20582196
 C        -1.88055181    -0.50504683    -1.39848362
 C        -2.80330943    -1.23994160    -2.14701671
 C        -3.19663923    -2.50028369    -1.72039466
 C        -2.66931988    -3.02518456    -0.54375276
 C        -1.74079266    -2.29707508     0.22504017
 C        -1.21926711    -2.93807411     1.48759435
 C         1.52756991    -0.65859354     0.23298939
 C         1.67080093    -1.44992890    -0.92396893
 C         2.91816743    -1.92281147    -1.33907747
 C         4.05564830    -1.61700852    -0.60573269
 C         3.94590002    -0.84035894     0.54441747
 C         2.69629170    -0.35810206     0.97945209
 C         2.66494944     0.47543559     2.23689004
 H        -2.87843163     1.38207343     1.24123221
 H        -2.87905881     3.03293379     1.85735404
 H        -1.73425504     1.87856839     2.52951900
 H        -2.04183065     4.56159412     0.36048003
 H        -0.43834829     5.29490259    -1.35444630
 H         1.31646474     3.73826250    -2.15972483
 H         1.46549124     1.47592082    -1.27477948
 H        -1.60067359     0.47408784    -1.77873633
 H        -3.21115838    -0.82176066    -3.06351208
 H        -3.91375591    -3.07457022    -2.30050820
 H        -2.99006423    -4.01460247    -0.22373311
 H        -0.14251441    -3.11834214     1.41135593
 H        -1.43271157    -2.30814038     2.35701662
 H        -1.69659667    -3.90690100     1.67197896
 H         0.81184569    -1.71223268    -1.53635530
 H         2.99441776    -2.52988816    -2.23731026
 H         5.02729015    -1.98285058    -0.92614837
 H         4.84834205    -0.61141258     1.10781663
 H         2.33294078     1.49439648     2.01508911
 H         3.65858829     0.55150986     2.69226195
 H         2.00669950     0.02166296     2.98460206
