76
Generated from SMILES: CC(C)OC(C=CC=C1OC(C)C)=C1C(C=CC=C2)=C2P(C3CCCCC3)C4CCCCC4
 C         3.72344837    -3.22804944    -1.77408571
 C         3.34898084    -1.84092287    -2.29224608
 C         4.55973634    -1.01646706    -2.73564920
 O         2.41862238    -1.20672666    -1.39742460
 C         2.85002004    -0.25638428    -0.51035580
 C         3.90855257    -0.49682425     0.36744413
 C         4.34694798     0.50636262     1.22816066
 C         3.71698565     1.74915242     1.22867445
 C         2.60861109     1.97951233     0.40662352
 O         2.02247671     3.21838330     0.31778836
 C         1.72830246     3.89559022     1.54622633
 C         0.33242796     3.50714380     2.01546573
 C         1.79079470     5.39118303     1.24559149
 C         2.14279977     0.96899949    -0.46744806
 C         0.98371503     1.21092363    -1.36505902
 C         1.22993863     1.94178423    -2.54921729
 C         0.21286190     2.22252054    -3.45757366
 C        -1.07427817     1.77392928    -3.20153752
 C        -1.34517675     1.04836892    -2.03777643
 C        -0.33895908     0.75255301    -1.09739097
 P        -0.74129390    -0.19635031     0.42975712
 C        -2.50797447     0.15779976     0.86136875
 C        -2.76389738     1.65490502     1.09848582
 C        -4.25787527     1.94886248     1.28276840
 C        -5.02784557     0.79618720     1.92932672
 C        -4.13540784    -0.00804964     2.86359398
 C        -2.93938096    -0.62193498     2.12603782
 C        -0.72095020    -1.94634742    -0.20519830
 C        -1.85164378    -2.37905230    -1.15472952
 C        -2.71211512    -3.51130907    -0.60022182
 C        -1.88967057    -4.72762434    -0.18198880
 C        -0.53800762    -4.37764828     0.43674493
 C        -0.48264649    -2.94158269     0.94383893
 H         4.42034757    -3.17690028    -0.93483913
 H         2.82948348    -3.75823369    -1.42336956
 H         4.19472838    -3.82974718    -2.56052832
 H         2.75663775    -2.00735753    -3.20132664
 H         5.29627707    -0.90404036    -1.93641044
 H         5.06995519    -1.50298844    -3.57459243
 H         4.25535023    -0.01350533    -3.05186278
 H         4.41529412    -1.45469459     0.38411346
 H         5.19524832     0.32852829     1.88224797
 H         4.12745155     2.53343957     1.85658847
 H         2.44857503     3.68053130     2.34164914
 H        -0.40143443     3.67037777     1.22037592
 H         0.03186192     4.08167004     2.89797804
 H         0.29776731     2.44243332     2.27421056
 H         1.58104654     5.98719523     2.14006785
 H         1.07306391     5.66598264     0.46257797
 H         2.78353402     5.66358255     0.86910732
 H         2.23757656     2.29910694    -2.75846209
 H         0.43019900     2.79100157    -4.35776139
 H        -1.87470534     1.99220858    -3.90275993
 H        -2.36999408     0.72692975    -1.87964284
 H        -3.15380463    -0.15887847     0.03649590
 H        -2.38890812     2.27862069     0.28015465
 H        -2.22735051     1.98014073     2.00027717
 H        -4.71281444     2.17825169     0.31096031
 H        -4.36334003     2.85467369     1.89107531
 H        -5.89701618     1.18809766     2.47144367
 H        -5.42301246     0.13443392     1.14828687
 H        -4.71047674    -0.80243247     3.35338106
 H        -3.76858589     0.64697398     3.66401862
 H        -2.11547393    -0.71382017     2.84551999
 H        -3.20483700    -1.64518185     1.84123071
 H         0.18985160    -1.99105377    -0.81191795
 H        -1.39476569    -2.73906167    -2.08910765
 H        -2.50314013    -1.55587209    -1.45696264
 H        -3.45270116    -3.81588855    -1.34856954
 H        -3.28616518    -3.15299280     0.26041019
 H        -1.72185885    -5.37503677    -1.05074752
 H        -2.47834537    -5.32230467     0.52726621
 H         0.24755288    -4.52152242    -0.31557195
 H        -0.31398409    -5.07420694     1.25247011
 H         0.50040089    -2.75781701     1.39646195
 H        -1.21758833    -2.81953056     1.74606907
